Version 4.1
SHEET 1 880 680
WIRE 96 -160 -144 -160
WIRE 352 -160 96 -160
WIRE 352 -128 352 -160
WIRE 304 -112 -16 -112
WIRE -144 -32 -144 -80
WIRE 608 -32 352 -32
WIRE 784 -32 608 -32
WIRE 608 0 608 -32
WIRE 512 32 304 32
WIRE 96 64 96 -160
WIRE 304 64 304 32
WIRE 304 64 96 64
WIRE 352 64 304 64
WIRE -16 96 -16 -112
WIRE 240 96 -16 96
WIRE 784 96 784 48
WIRE 608 112 608 80
WIRE -16 128 -16 96
WIRE 240 144 240 96
WIRE 304 144 240 144
WIRE 352 176 352 160
WIRE 480 176 352 176
WIRE 512 176 512 112
WIRE 352 192 352 176
WIRE 480 256 480 176
WIRE 560 256 480 256
WIRE -16 272 -16 208
WIRE 352 272 352 256
WIRE 352 320 352 272
FLAG -16 272 0
FLAG -144 -32 0
FLAG 608 112 0
FLAG 352 320 0
FLAG 784 96 0
FLAG 512 176 0
SYMBOL voltage -16 112 R0
WINDOW 123 0 0 Left 0
WINDOW 39 0 0 Left 0
SYMATTR InstName V1
SYMATTR Value PULSE(0 25 0 0 0 0.5 1 20)
SYMBOL nmos 304 64 R0
WINDOW 3 67 70 Left 2
SYMATTR InstName M1
SYMATTR Value BSC750N10ND
SYMBOL pmos 304 -32 M180
SYMATTR InstName M2
SYMBOL voltage -144 -176 R0
WINDOW 123 0 0 Left 0
WINDOW 39 0 0 Left 0
SYMATTR InstName V2
SYMATTR Value 20
SYMBOL res 592 -16 R0
SYMATTR InstName R1
SYMATTR Value 10K
SYMBOL res 336 176 R0
SYMATTR InstName R2
SYMATTR Value 10K
SYMBOL res 768 -48 R0
SYMATTR InstName R3
SYMATTR Value 10R
SYMBOL res 496 16 R0
SYMATTR InstName R4
SYMATTR Value 10R
TEXT -176 344 Left 2 !.tran 10
